L6/1726538/_ATERRAMENTO.dss
! Aterramento do neutro (no 4) dos secundarios de BT
! Reactor de 0.5 ohm entre o no 4 e a terra (no 0).
New Reactor.NEUTRO_node_1002481715 phases=1 bus1=node_1002481715.4 bus2=node_1002481715.0 R=0.5 X=0
New Reactor.NEUTRO_node_1003774401 phases=1 bus1=node_1003774401.4 bus2=node_1003774401.0 R=0.5 X=0
New Reactor.NEUTRO_node_1056006625 phases=1 bus1=node_1056006625.4 bus2=node_1056006625.0 R=0.5 X=0
New Reactor.NEUTRO_node_1082023670 phases=1 bus1=node_1082023670.4 bus2=node_1082023670.0 R=0.5 X=0
New Reactor.NEUTRO_node_1105215541 phases=1 bus1=node_1105215541.4 bus2=node_1105215541.0 R=0.5 X=0
New Reactor.NEUTRO_node_1105713635 phases=1 bus1=node_1105713635.4 bus2=node_1105713635.0 R=0.5 X=0
New Reactor.NEUTRO_node_1106898872 phases=1 bus1=node_1106898872.4 bus2=node_1106898872.0 R=0.5 X=0
New Reactor.NEUTRO_node_1109170348 phases=1 bus1=node_1109170348.4 bus2=node_1109170348.0 R=0.5 X=0
New Reactor.NEUTRO_node_1128450347 phases=1 bus1=node_1128450347.4 bus2=node_1128450347.0 R=0.5 X=0
New Reactor.NEUTRO_node_1132113228 phases=1 bus1=node_1132113228.4 bus2=node_1132113228.0 R=0.5 X=0
New Reactor.NEUTRO_node_1144012396 phases=1 bus1=node_1144012396.4 bus2=node_1144012396.0 R=0.5 X=0
New Reactor.NEUTRO_node_1144012705 phases=1 bus1=node_1144012705.4 bus2=node_1144012705.0 R=0.5 X=0
New Reactor.NEUTRO_node_1144013124 phases=1 bus1=node_1144013124.4 bus2=node_1144013124.0 R=0.5 X=0
New Reactor.NEUTRO_node_1144013788 phases=1 bus1=node_1144013788.4 bus2=node_1144013788.0 R=0.5 X=0
New Reactor.NEUTRO_node_1181404544 phases=1 bus1=node_1181404544.4 bus2=node_1181404544.0 R=0.5 X=0
New Reactor.NEUTRO_node_1183972255 phases=1 bus1=node_1183972255.4 bus2=node_1183972255.0 R=0.5 X=0
New Reactor.NEUTRO_node_1183972318 phases=1 bus1=node_1183972318.4 bus2=node_1183972318.0 R=0.5 X=0
New Reactor.NEUTRO_node_1183972374 phases=1 bus1=node_1183972374.4 bus2=node_1183972374.0 R=0.5 X=0
New Reactor.NEUTRO_node_1192418271 phases=1 bus1=node_1192418271.4 bus2=node_1192418271.0 R=0.5 X=0
New Reactor.NEUTRO_node_1192418448 phases=1 bus1=node_1192418448.4 bus2=node_1192418448.0 R=0.5 X=0
New Reactor.NEUTRO_node_1192418614 phases=1 bus1=node_1192418614.4 bus2=node_1192418614.0 R=0.5 X=0
New Reactor.NEUTRO_node_1192418633 phases=1 bus1=node_1192418633.4 bus2=node_1192418633.0 R=0.5 X=0
New Reactor.NEUTRO_node_1220166666 phases=1 bus1=node_1220166666.4 bus2=node_1220166666.0 R=0.5 X=0
New Reactor.NEUTRO_node_1220166822 phases=1 bus1=node_1220166822.4 bus2=node_1220166822.0 R=0.5 X=0
New Reactor.NEUTRO_node_1224077775 phases=1 bus1=node_1224077775.4 bus2=node_1224077775.0 R=0.5 X=0
New Reactor.NEUTRO_node_1226933630 phases=1 bus1=node_1226933630.4 bus2=node_1226933630.0 R=0.5 X=0
New Reactor.NEUTRO_node_1229831889 phases=1 bus1=node_1229831889.4 bus2=node_1229831889.0 R=0.5 X=0
New Reactor.NEUTRO_node_1229862081 phases=1 bus1=node_1229862081.4 bus2=node_1229862081.0 R=0.5 X=0
New Reactor.NEUTRO_node_1235731860 phases=1 bus1=node_1235731860.4 bus2=node_1235731860.0 R=0.5 X=0
New Reactor.NEUTRO_node_1235731929 phases=1 bus1=node_1235731929.4 bus2=node_1235731929.0 R=0.5 X=0
New Reactor.NEUTRO_node_1235959549 phases=1 bus1=node_1235959549.4 bus2=node_1235959549.0 R=0.5 X=0
New Reactor.NEUTRO_node_1240863400 phases=1 bus1=node_1240863400.4 bus2=node_1240863400.0 R=0.5 X=0
New Reactor.NEUTRO_node_1242770058 phases=1 bus1=node_1242770058.4 bus2=node_1242770058.0 R=0.5 X=0
New Reactor.NEUTRO_node_1242770073 phases=1 bus1=node_1242770073.4 bus2=node_1242770073.0 R=0.5 X=0
New Reactor.NEUTRO_node_1244903959 phases=1 bus1=node_1244903959.4 bus2=node_1244903959.0 R=0.5 X=0
New Reactor.NEUTRO_node_1247201242 phases=1 bus1=node_1247201242.4 bus2=node_1247201242.0 R=0.5 X=0
New Reactor.NEUTRO_node_1251606954 phases=1 bus1=node_1251606954.4 bus2=node_1251606954.0 R=0.5 X=0
New Reactor.NEUTRO_node_1272883472 phases=1 bus1=node_1272883472.4 bus2=node_1272883472.0 R=0.5 X=0
New Reactor.NEUTRO_node_1284949529 phases=1 bus1=node_1284949529.4 bus2=node_1284949529.0 R=0.5 X=0
New Reactor.NEUTRO_node_1285318844 phases=1 bus1=node_1285318844.4 bus2=node_1285318844.0 R=0.5 X=0
New Reactor.NEUTRO_node_1292584240 phases=1 bus1=node_1292584240.4 bus2=node_1292584240.0 R=0.5 X=0
New Reactor.NEUTRO_node_1313573464 phases=1 bus1=node_1313573464.4 bus2=node_1313573464.0 R=0.5 X=0
New Reactor.NEUTRO_node_1319469656 phases=1 bus1=node_1319469656.4 bus2=node_1319469656.0 R=0.5 X=0
New Reactor.NEUTRO_node_1323312137 phases=1 bus1=node_1323312137.4 bus2=node_1323312137.0 R=0.5 X=0
New Reactor.NEUTRO_node_1329791828 phases=1 bus1=node_1329791828.4 bus2=node_1329791828.0 R=0.5 X=0
New Reactor.NEUTRO_node_1332406817 phases=1 bus1=node_1332406817.4 bus2=node_1332406817.0 R=0.5 X=0
New Reactor.NEUTRO_node_1333966028 phases=1 bus1=node_1333966028.4 bus2=node_1333966028.0 R=0.5 X=0
New Reactor.NEUTRO_node_1337250670 phases=1 bus1=node_1337250670.4 bus2=node_1337250670.0 R=0.5 X=0
New Reactor.NEUTRO_node_1337250885 phases=1 bus1=node_1337250885.4 bus2=node_1337250885.0 R=0.5 X=0
New Reactor.NEUTRO_node_1337250911 phases=1 bus1=node_1337250911.4 bus2=node_1337250911.0 R=0.5 X=0
New Reactor.NEUTRO_node_1337251006 phases=1 bus1=node_1337251006.4 bus2=node_1337251006.0 R=0.5 X=0
New Reactor.NEUTRO_node_1337251044 phases=1 bus1=node_1337251044.4 bus2=node_1337251044.0 R=0.5 X=0
New Reactor.NEUTRO_node_1337251083 phases=1 bus1=node_1337251083.4 bus2=node_1337251083.0 R=0.5 X=0
New Reactor.NEUTRO_node_1344689178 phases=1 bus1=node_1344689178.4 bus2=node_1344689178.0 R=0.5 X=0
New Reactor.NEUTRO_node_1364302837 phases=1 bus1=node_1364302837.4 bus2=node_1364302837.0 R=0.5 X=0
New Reactor.NEUTRO_node_1379995334 phases=1 bus1=node_1379995334.4 bus2=node_1379995334.0 R=0.5 X=0
New Reactor.NEUTRO_node_1386816451 phases=1 bus1=node_1386816451.4 bus2=node_1386816451.0 R=0.5 X=0
New Reactor.NEUTRO_node_1392229700 phases=1 bus1=node_1392229700.4 bus2=node_1392229700.0 R=0.5 X=0
New Reactor.NEUTRO_node_1396889782 phases=1 bus1=node_1396889782.4 bus2=node_1396889782.0 R=0.5 X=0
New Reactor.NEUTRO_node_1431108735 phases=1 bus1=node_1431108735.4 bus2=node_1431108735.0 R=0.5 X=0
New Reactor.NEUTRO_node_1446524578 phases=1 bus1=node_1446524578.4 bus2=node_1446524578.0 R=0.5 X=0
New Reactor.NEUTRO_node_1467977009 phases=1 bus1=node_1467977009.4 bus2=node_1467977009.0 R=0.5 X=0
New Reactor.NEUTRO_node_1503321036 phases=1 bus1=node_1503321036.4 bus2=node_1503321036.0 R=0.5 X=0
New Reactor.NEUTRO_node_1528706999 phases=1 bus1=node_1528706999.4 bus2=node_1528706999.0 R=0.5 X=0
New Reactor.NEUTRO_node_1566142537 phases=1 bus1=node_1566142537.4 bus2=node_1566142537.0 R=0.5 X=0
New Reactor.NEUTRO_node_1566326867 phases=1 bus1=node_1566326867.4 bus2=node_1566326867.0 R=0.5 X=0
New Reactor.NEUTRO_node_1598781054 phases=1 bus1=node_1598781054.4 bus2=node_1598781054.0 R=0.5 X=0
New Reactor.NEUTRO_node_1606179532 phases=1 bus1=node_1606179532.4 bus2=node_1606179532.0 R=0.5 X=0
New Reactor.NEUTRO_node_1606179697 phases=1 bus1=node_1606179697.4 bus2=node_1606179697.0 R=0.5 X=0
New Reactor.NEUTRO_node_1608347772 phases=1 bus1=node_1608347772.4 bus2=node_1608347772.0 R=0.5 X=0
New Reactor.NEUTRO_node_1609747640 phases=1 bus1=node_1609747640.4 bus2=node_1609747640.0 R=0.5 X=0
New Reactor.NEUTRO_node_1610052558 phases=1 bus1=node_1610052558.4 bus2=node_1610052558.0 R=0.5 X=0
New Reactor.NEUTRO_node_1629633160 phases=1 bus1=node_1629633160.4 bus2=node_1629633160.0 R=0.5 X=0
New Reactor.NEUTRO_node_1630303304 phases=1 bus1=node_1630303304.4 bus2=node_1630303304.0 R=0.5 X=0
New Reactor.NEUTRO_node_1638702098 phases=1 bus1=node_1638702098.4 bus2=node_1638702098.0 R=0.5 X=0
New Reactor.NEUTRO_node_1643662339 phases=1 bus1=node_1643662339.4 bus2=node_1643662339.0 R=0.5 X=0
New Reactor.NEUTRO_node_1645061568 phases=1 bus1=node_1645061568.4 bus2=node_1645061568.0 R=0.5 X=0
New Reactor.NEUTRO_node_1656299144 phases=1 bus1=node_1656299144.4 bus2=node_1656299144.0 R=0.5 X=0
New Reactor.NEUTRO_node_1677223702 phases=1 bus1=node_1677223702.4 bus2=node_1677223702.0 R=0.5 X=0
New Reactor.NEUTRO_node_1677223741 phases=1 bus1=node_1677223741.4 bus2=node_1677223741.0 R=0.5 X=0
New Reactor.NEUTRO_node_1689641985 phases=1 bus1=node_1689641985.4 bus2=node_1689641985.0 R=0.5 X=0
New Reactor.NEUTRO_node_1693077031 phases=1 bus1=node_1693077031.4 bus2=node_1693077031.0 R=0.5 X=0
New Reactor.NEUTRO_node_1728734543 phases=1 bus1=node_1728734543.4 bus2=node_1728734543.0 R=0.5 X=0
New Reactor.NEUTRO_node_1729667018 phases=1 bus1=node_1729667018.4 bus2=node_1729667018.0 R=0.5 X=0
New Reactor.NEUTRO_node_1729667277 phases=1 bus1=node_1729667277.4 bus2=node_1729667277.0 R=0.5 X=0
New Reactor.NEUTRO_node_1734518436 phases=1 bus1=node_1734518436.4 bus2=node_1734518436.0 R=0.5 X=0
New Reactor.NEUTRO_node_1734518804 phases=1 bus1=node_1734518804.4 bus2=node_1734518804.0 R=0.5 X=0
New Reactor.NEUTRO_node_1740289560 phases=1 bus1=node_1740289560.4 bus2=node_1740289560.0 R=0.5 X=0
New Reactor.NEUTRO_node_1744159065 phases=1 bus1=node_1744159065.4 bus2=node_1744159065.0 R=0.5 X=0
New Reactor.NEUTRO_node_1746219548 phases=1 bus1=node_1746219548.4 bus2=node_1746219548.0 R=0.5 X=0
New Reactor.NEUTRO_node_1800199741 phases=1 bus1=node_1800199741.4 bus2=node_1800199741.0 R=0.5 X=0
New Reactor.NEUTRO_node_1820711879 phases=1 bus1=node_1820711879.4 bus2=node_1820711879.0 R=0.5 X=0
New Reactor.NEUTRO_node_1868371209 phases=1 bus1=node_1868371209.4 bus2=node_1868371209.0 R=0.5 X=0
New Reactor.NEUTRO_node_1868371227 phases=1 bus1=node_1868371227.4 bus2=node_1868371227.0 R=0.5 X=0
New Reactor.NEUTRO_node_1877599173 phases=1 bus1=node_1877599173.4 bus2=node_1877599173.0 R=0.5 X=0
New Reactor.NEUTRO_node_1921766845 phases=1 bus1=node_1921766845.4 bus2=node_1921766845.0 R=0.5 X=0
New Reactor.NEUTRO_node_1921792626 phases=1 bus1=node_1921792626.4 bus2=node_1921792626.0 R=0.5 X=0
New Reactor.NEUTRO_node_1931823790 phases=1 bus1=node_1931823790.4 bus2=node_1931823790.0 R=0.5 X=0
New Reactor.NEUTRO_node_1951108057 phases=1 bus1=node_1951108057.4 bus2=node_1951108057.0 R=0.5 X=0
New Reactor.NEUTRO_node_1954418486 phases=1 bus1=node_1954418486.4 bus2=node_1954418486.0 R=0.5 X=0
New Reactor.NEUTRO_node_1958261694 phases=1 bus1=node_1958261694.4 bus2=node_1958261694.0 R=0.5 X=0
New Reactor.NEUTRO_node_1960894038 phases=1 bus1=node_1960894038.4 bus2=node_1960894038.0 R=0.5 X=0
New Reactor.NEUTRO_node_1974282488 phases=1 bus1=node_1974282488.4 bus2=node_1974282488.0 R=0.5 X=0
New Reactor.NEUTRO_node_1974282727 phases=1 bus1=node_1974282727.4 bus2=node_1974282727.0 R=0.5 X=0
New Reactor.NEUTRO_node_1980272658 phases=1 bus1=node_1980272658.4 bus2=node_1980272658.0 R=0.5 X=0
New Reactor.NEUTRO_node_1980273065 phases=1 bus1=node_1980273065.4 bus2=node_1980273065.0 R=0.5 X=0
New Reactor.NEUTRO_node_2006272775 phases=1 bus1=node_2006272775.4 bus2=node_2006272775.0 R=0.5 X=0
New Reactor.NEUTRO_node_2006968826 phases=1 bus1=node_2006968826.4 bus2=node_2006968826.0 R=0.5 X=0
New Reactor.NEUTRO_node_2024475050 phases=1 bus1=node_2024475050.4 bus2=node_2024475050.0 R=0.5 X=0
New Reactor.NEUTRO_node_2037623720 phases=1 bus1=node_2037623720.4 bus2=node_2037623720.0 R=0.5 X=0
New Reactor.NEUTRO_node_2043527518 phases=1 bus1=node_2043527518.4 bus2=node_2043527518.0 R=0.5 X=0
New Reactor.NEUTRO_node_2051037783 phases=1 bus1=node_2051037783.4 bus2=node_2051037783.0 R=0.5 X=0
New Reactor.NEUTRO_node_2068269615 phases=1 bus1=node_2068269615.4 bus2=node_2068269615.0 R=0.5 X=0
New Reactor.NEUTRO_node_2098666764 phases=1 bus1=node_2098666764.4 bus2=node_2098666764.0 R=0.5 X=0
New Reactor.NEUTRO_node_2098890545 phases=1 bus1=node_2098890545.4 bus2=node_2098890545.0 R=0.5 X=0
New Reactor.NEUTRO_node_2109582188 phases=1 bus1=node_2109582188.4 bus2=node_2109582188.0 R=0.5 X=0
New Reactor.NEUTRO_node_2126882701 phases=1 bus1=node_2126882701.4 bus2=node_2126882701.0 R=0.5 X=0
New Reactor.NEUTRO_node_2137840934 phases=1 bus1=node_2137840934.4 bus2=node_2137840934.0 R=0.5 X=0
New Reactor.NEUTRO_node_2142220923 phases=1 bus1=node_2142220923.4 bus2=node_2142220923.0 R=0.5 X=0
New Reactor.NEUTRO_node_2142221058 phases=1 bus1=node_2142221058.4 bus2=node_2142221058.0 R=0.5 X=0
New Reactor.NEUTRO_node_2144686059 phases=1 bus1=node_2144686059.4 bus2=node_2144686059.0 R=0.5 X=0
New Reactor.NEUTRO_node_2144686129 phases=1 bus1=node_2144686129.4 bus2=node_2144686129.0 R=0.5 X=0
New Reactor.NEUTRO_node_2151341533 phases=1 bus1=node_2151341533.4 bus2=node_2151341533.0 R=0.5 X=0
New Reactor.NEUTRO_node_2158168982 phases=1 bus1=node_2158168982.4 bus2=node_2158168982.0 R=0.5 X=0
New Reactor.NEUTRO_node_2159332505 phases=1 bus1=node_2159332505.4 bus2=node_2159332505.0 R=0.5 X=0
New Reactor.NEUTRO_node_2162063400 phases=1 bus1=node_2162063400.4 bus2=node_2162063400.0 R=0.5 X=0
New Reactor.NEUTRO_node_2168757814 phases=1 bus1=node_2168757814.4 bus2=node_2168757814.0 R=0.5 X=0
New Reactor.NEUTRO_node_2168757871 phases=1 bus1=node_2168757871.4 bus2=node_2168757871.0 R=0.5 X=0
New Reactor.NEUTRO_node_2170024791 phases=1 bus1=node_2170024791.4 bus2=node_2170024791.0 R=0.5 X=0
New Reactor.NEUTRO_node_2181429404 phases=1 bus1=node_2181429404.4 bus2=node_2181429404.0 R=0.5 X=0
New Reactor.NEUTRO_node_2201675610 phases=1 bus1=node_2201675610.4 bus2=node_2201675610.0 R=0.5 X=0
New Reactor.NEUTRO_node_2216957928 phases=1 bus1=node_2216957928.4 bus2=node_2216957928.0 R=0.5 X=0
New Reactor.NEUTRO_node_2218568191 phases=1 bus1=node_2218568191.4 bus2=node_2218568191.0 R=0.5 X=0
New Reactor.NEUTRO_node_2219349749 phases=1 bus1=node_2219349749.4 bus2=node_2219349749.0 R=0.5 X=0
New Reactor.NEUTRO_node_2223098430 phases=1 bus1=node_2223098430.4 bus2=node_2223098430.0 R=0.5 X=0
New Reactor.NEUTRO_node_2243589262 phases=1 bus1=node_2243589262.4 bus2=node_2243589262.0 R=0.5 X=0
New Reactor.NEUTRO_node_2253564290 phases=1 bus1=node_2253564290.4 bus2=node_2253564290.0 R=0.5 X=0
New Reactor.NEUTRO_node_2257325803 phases=1 bus1=node_2257325803.4 bus2=node_2257325803.0 R=0.5 X=0
New Reactor.NEUTRO_node_2261052967 phases=1 bus1=node_2261052967.4 bus2=node_2261052967.0 R=0.5 X=0
New Reactor.NEUTRO_node_2261053023 phases=1 bus1=node_2261053023.4 bus2=node_2261053023.0 R=0.5 X=0
New Reactor.NEUTRO_node_2266987280 phases=1 bus1=node_2266987280.4 bus2=node_2266987280.0 R=0.5 X=0
New Reactor.NEUTRO_node_2278668229 phases=1 bus1=node_2278668229.4 bus2=node_2278668229.0 R=0.5 X=0
New Reactor.NEUTRO_node_2319975587 phases=1 bus1=node_2319975587.4 bus2=node_2319975587.0 R=0.5 X=0
New Reactor.NEUTRO_node_2322869453 phases=1 bus1=node_2322869453.4 bus2=node_2322869453.0 R=0.5 X=0
New Reactor.NEUTRO_node_2322869545 phases=1 bus1=node_2322869545.4 bus2=node_2322869545.0 R=0.5 X=0
New Reactor.NEUTRO_node_2349196105 phases=1 bus1=node_2349196105.4 bus2=node_2349196105.0 R=0.5 X=0
New Reactor.NEUTRO_node_2350449842 phases=1 bus1=node_2350449842.4 bus2=node_2350449842.0 R=0.5 X=0
New Reactor.NEUTRO_node_2350450250 phases=1 bus1=node_2350450250.4 bus2=node_2350450250.0 R=0.5 X=0
New Reactor.NEUTRO_node_2366268846 phases=1 bus1=node_2366268846.4 bus2=node_2366268846.0 R=0.5 X=0
New Reactor.NEUTRO_node_2369081637 phases=1 bus1=node_2369081637.4 bus2=node_2369081637.0 R=0.5 X=0
New Reactor.NEUTRO_node_2396240994 phases=1 bus1=node_2396240994.4 bus2=node_2396240994.0 R=0.5 X=0
New Reactor.NEUTRO_node_2410617348 phases=1 bus1=node_2410617348.4 bus2=node_2410617348.0 R=0.5 X=0
New Reactor.NEUTRO_node_2411639257 phases=1 bus1=node_2411639257.4 bus2=node_2411639257.0 R=0.5 X=0
New Reactor.NEUTRO_node_2424413916 phases=1 bus1=node_2424413916.4 bus2=node_2424413916.0 R=0.5 X=0
New Reactor.NEUTRO_node_2424414188 phases=1 bus1=node_2424414188.4 bus2=node_2424414188.0 R=0.5 X=0
New Reactor.NEUTRO_node_2427922142 phases=1 bus1=node_2427922142.4 bus2=node_2427922142.0 R=0.5 X=0
New Reactor.NEUTRO_node_2427922885 phases=1 bus1=node_2427922885.4 bus2=node_2427922885.0 R=0.5 X=0
New Reactor.NEUTRO_node_2428510646 phases=1 bus1=node_2428510646.4 bus2=node_2428510646.0 R=0.5 X=0
New Reactor.NEUTRO_node_2439790707 phases=1 bus1=node_2439790707.4 bus2=node_2439790707.0 R=0.5 X=0
New Reactor.NEUTRO_node_2473580468 phases=1 bus1=node_2473580468.4 bus2=node_2473580468.0 R=0.5 X=0
New Reactor.NEUTRO_node_2478043203 phases=1 bus1=node_2478043203.4 bus2=node_2478043203.0 R=0.5 X=0
New Reactor.NEUTRO_node_2478454684 phases=1 bus1=node_2478454684.4 bus2=node_2478454684.0 R=0.5 X=0
New Reactor.NEUTRO_node_2481468502 phases=1 bus1=node_2481468502.4 bus2=node_2481468502.0 R=0.5 X=0
New Reactor.NEUTRO_node_2487248088 phases=1 bus1=node_2487248088.4 bus2=node_2487248088.0 R=0.5 X=0
New Reactor.NEUTRO_node_2487647641 phases=1 bus1=node_2487647641.4 bus2=node_2487647641.0 R=0.5 X=0
New Reactor.NEUTRO_node_2490374205 phases=1 bus1=node_2490374205.4 bus2=node_2490374205.0 R=0.5 X=0
New Reactor.NEUTRO_node_2495187984 phases=1 bus1=node_2495187984.4 bus2=node_2495187984.0 R=0.5 X=0
New Reactor.NEUTRO_node_2496069945 phases=1 bus1=node_2496069945.4 bus2=node_2496069945.0 R=0.5 X=0
New Reactor.NEUTRO_node_2497236162 phases=1 bus1=node_2497236162.4 bus2=node_2497236162.0 R=0.5 X=0
New Reactor.NEUTRO_node_2505872066 phases=1 bus1=node_2505872066.4 bus2=node_2505872066.0 R=0.5 X=0
New Reactor.NEUTRO_node_2507576152 phases=1 bus1=node_2507576152.4 bus2=node_2507576152.0 R=0.5 X=0
New Reactor.NEUTRO_node_2507679398 phases=1 bus1=node_2507679398.4 bus2=node_2507679398.0 R=0.5 X=0
New Reactor.NEUTRO_node_2515817044 phases=1 bus1=node_2515817044.4 bus2=node_2515817044.0 R=0.5 X=0
New Reactor.NEUTRO_node_2519105270 phases=1 bus1=node_2519105270.4 bus2=node_2519105270.0 R=0.5 X=0
New Reactor.NEUTRO_node_2519105691 phases=1 bus1=node_2519105691.4 bus2=node_2519105691.0 R=0.5 X=0
New Reactor.NEUTRO_node_2519105789 phases=1 bus1=node_2519105789.4 bus2=node_2519105789.0 R=0.5 X=0
New Reactor.NEUTRO_node_2535654318 phases=1 bus1=node_2535654318.4 bus2=node_2535654318.0 R=0.5 X=0
New Reactor.NEUTRO_node_2537019993 phases=1 bus1=node_2537019993.4 bus2=node_2537019993.0 R=0.5 X=0
New Reactor.NEUTRO_node_2537861412 phases=1 bus1=node_2537861412.4 bus2=node_2537861412.0 R=0.5 X=0
New Reactor.NEUTRO_node_2542086729 phases=1 bus1=node_2542086729.4 bus2=node_2542086729.0 R=0.5 X=0
New Reactor.NEUTRO_node_2543654266 phases=1 bus1=node_2543654266.4 bus2=node_2543654266.0 R=0.5 X=0
New Reactor.NEUTRO_node_2550760613 phases=1 bus1=node_2550760613.4 bus2=node_2550760613.0 R=0.5 X=0
New Reactor.NEUTRO_node_2559022563 phases=1 bus1=node_2559022563.4 bus2=node_2559022563.0 R=0.5 X=0
New Reactor.NEUTRO_node_2559726603 phases=1 bus1=node_2559726603.4 bus2=node_2559726603.0 R=0.5 X=0
New Reactor.NEUTRO_node_2561079151 phases=1 bus1=node_2561079151.4 bus2=node_2561079151.0 R=0.5 X=0
New Reactor.NEUTRO_node_2565321745 phases=1 bus1=node_2565321745.4 bus2=node_2565321745.0 R=0.5 X=0
New Reactor.NEUTRO_node_2568134163 phases=1 bus1=node_2568134163.4 bus2=node_2568134163.0 R=0.5 X=0
New Reactor.NEUTRO_node_2568568364 phases=1 bus1=node_2568568364.4 bus2=node_2568568364.0 R=0.5 X=0
New Reactor.NEUTRO_node_2569439558 phases=1 bus1=node_2569439558.4 bus2=node_2569439558.0 R=0.5 X=0
New Reactor.NEUTRO_node_2570049673 phases=1 bus1=node_2570049673.4 bus2=node_2570049673.0 R=0.5 X=0
New Reactor.NEUTRO_node_2575232047 phases=1 bus1=node_2575232047.4 bus2=node_2575232047.0 R=0.5 X=0
New Reactor.NEUTRO_node_2578233820 phases=1 bus1=node_2578233820.4 bus2=node_2578233820.0 R=0.5 X=0
New Reactor.NEUTRO_node_2583077224 phases=1 bus1=node_2583077224.4 bus2=node_2583077224.0 R=0.5 X=0
New Reactor.NEUTRO_node_2583841841 phases=1 bus1=node_2583841841.4 bus2=node_2583841841.0 R=0.5 X=0
New Reactor.NEUTRO_node_2590759162 phases=1 bus1=node_2590759162.4 bus2=node_2590759162.0 R=0.5 X=0
New Reactor.NEUTRO_node_2591180054 phases=1 bus1=node_2591180054.4 bus2=node_2591180054.0 R=0.5 X=0
New Reactor.NEUTRO_node_2593520298 phases=1 bus1=node_2593520298.4 bus2=node_2593520298.0 R=0.5 X=0
New Reactor.NEUTRO_node_2613367098 phases=1 bus1=node_2613367098.4 bus2=node_2613367098.0 R=0.5 X=0
New Reactor.NEUTRO_node_2635584332 phases=1 bus1=node_2635584332.4 bus2=node_2635584332.0 R=0.5 X=0
New Reactor.NEUTRO_node_2648938714 phases=1 bus1=node_2648938714.4 bus2=node_2648938714.0 R=0.5 X=0
...
